results/2026-03-10/bilevel_comparisons_single_period/solution_bus_motivation_c_jain.csv
bus_id,vm_avg,z_voltage
1,1.03,1.0
2,1.0300000115736425,1.0
3,0.0,0.0
4,1.0300590820460387,1.0
5,0.0,0.0
6,1.0382547147561507,1.0
7,1.0301121198255943,1.0
8,1.0301121219344573,1.0
9,1.032070659625307,1.0
10,0.0,0.0
11,1.0300590726344625,1.0
12,0.0,0.0
13,1.030000001178136,1.0
14,1.0301121198255943,1.0
15,0.0,0.0
16,0.0,0.0
17,1.0301121198255943,1.0
18,1.030000001178136,1.0
19,1.0301121219344573,1.0
20,0.0,0.0
